FoamFile
{
	version		2.0;
	format		ascii;
	class		dictionary;
	object		fvSolution;
}

solvers
{
    "alpha.water.*"
    {
        nAlphaCorr      1;
        nAlphaSubCycles 1;
        cAlpha          1;

        MULESCorr       yes;
        nLimiterIter    3;

        solver          smoothSolver;
        smoother        GaussSeidel;
        tolerance       1e-8;
        relTol          0;
    }

    "pcorr.*"
    {
        solver          PCG;
        preconditioner  DIC;
        tolerance       1e-5;
        relTol          0;
    }

    p_rgh
    {
        solver          PCG;
        preconditioner  DIC;
        tolerance       1e-07;
        relTol          0.05;
    }

    p_rghFinal
    {
        $p_rgh;
        relTol          0;
    }

    "(U|k|epsilon).*"
    {
        solver          smoothSolver;
        smoother        GaussSeidel;
        tolerance       1e-06;
        relTol          0.01;
        minIter         1;
    }

}

PIMPLE
{
    momentumPredictor   on;
    nOuterCorrectors    1;
    nCorrectors         2;
    nNonOrthogonalCorrectors 0;
    pRefCell    0;
    pRefValue    0;
}

potentialFlow
{
	PhiRefCell 	0;
	PhiRefPoint	0;
	PhiRefValue	0;

}
